
---------- Begin Simulation Statistics ----------
simSeconds                                   0.000434                       # Number of seconds simulated (Second)
simTicks                                    434147500                       # Number of ticks simulated (Tick)
finalTick                                   434147500                       # Number of ticks from beginning of simulation (restored from checkpoints and never reset) (Tick)
simFreq                                  1000000000000                       # The number of ticks per simulated second ((Tick/Second))
hostSeconds                                      0.05                       # Real time elapsed on the host (Second)
hostTickRate                               9561246063                       # The number of ticks simulated per host second (ticks/s) ((Tick/Second))
hostMemory                                    1186744                       # Number of bytes of host memory used (Byte)
simInsts                                         6091                       # Number of instructions simulated (Count)
simOps                                          10978                       # Number of ops (including micro ops) simulated (Count)
hostInstRate                                   133868                       # Simulator instruction rate (inst/s) ((Count/Second))
hostOpRate                                     241238                       # Simulator op (including micro ops) rate (op/s) ((Count/Second))
system.clk_domain.clock                           500                       # Clock period in ticks (Tick)
system.clk_domain.voltage_domain.voltage            1                       # Voltage in Volts (Volt)
system.cpu.numCycles                           868295                       # Number of cpu cycles simulated (Cycle)
system.cpu.cpi                             142.250164                       # CPI: cycles per instruction (core level) ((Cycle/Count))
system.cpu.ipc                               0.007030                       # IPC: instructions per cycle (core level) ((Count/Cycle))
system.cpu.numWorkItemsStarted                      0                       # Number of work items this cpu started (Count)
system.cpu.numWorkItemsCompleted                    0                       # Number of work items this cpu completed (Count)
system.cpu.commitStats0.numInsts                 6104                       # Number of instructions committed (thread level) (Count)
system.cpu.commitStats0.numOps                  10991                       # Number of ops (including micro ops) committed (thread level) (Count)
system.cpu.commitStats0.numInstsNotNOP              0                       # Number of instructions committed excluding NOPs or prefetches (Count)
system.cpu.commitStats0.numOpsNotNOP                0                       # Number of Ops (including micro ops) Simulated (Count)
system.cpu.commitStats0.cpi                142.250164                       # CPI: cycles per instruction (thread level) ((Cycle/Count))
system.cpu.commitStats0.ipc                  0.007030                       # IPC: instructions per cycle (thread level) ((Count/Cycle))
system.cpu.commitStats0.numMemRefs                  0                       # Number of memory references committed (Count)
system.cpu.commitStats0.numFpInsts                  0                       # Number of float instructions (Count)
system.cpu.commitStats0.numIntInsts             10848                       # Number of integer instructions (Count)
system.cpu.commitStats0.numLoadInsts             1110                       # Number of load instructions (Count)
system.cpu.commitStats0.numStoreInsts             951                       # Number of store instructions (Count)
system.cpu.commitStats0.numVecInsts                 0                       # Number of vector instructions (Count)
system.cpu.commitStats0.committedInstType::No_OpClass            0      0.00%      0.00% # Class of committed instruction. (Count)
system.cpu.commitStats0.committedInstType::IntAlu         8912     81.08%     81.08% # Class of committed instruction. (Count)
system.cpu.commitStats0.committedInstType::IntMult           11      0.10%     81.18% # Class of committed instruction. (Count)
system.cpu.commitStats0.committedInstType::IntDiv            7      0.06%     81.25% # Class of committed instruction. (Count)
system.cpu.commitStats0.committedInstType::FloatAdd            0      0.00%     81.25% # Class of committed instruction. (Count)
system.cpu.commitStats0.committedInstType::FloatCmp            0      0.00%     81.25% # Class of committed instruction. (Count)
system.cpu.commitStats0.committedInstType::FloatCvt            0      0.00%     81.25% # Class of committed instruction. (Count)
system.cpu.commitStats0.committedInstType::FloatMult            0      0.00%     81.25% # Class of committed instruction. (Count)
system.cpu.commitStats0.committedInstType::FloatMultAcc            0      0.00%     81.25% # Class of committed instruction. (Count)
system.cpu.commitStats0.committedInstType::FloatDiv            0      0.00%     81.25% # Class of committed instruction. (Count)
system.cpu.commitStats0.committedInstType::FloatMisc            0      0.00%     81.25% # Class of committed instruction. (Count)
system.cpu.commitStats0.committedInstType::FloatSqrt            0      0.00%     81.25% # Class of committed instruction. (Count)
system.cpu.commitStats0.committedInstType::SimdAdd            0      0.00%     81.25% # Class of committed instruction. (Count)
system.cpu.commitStats0.committedInstType::SimdAddAcc            0      0.00%     81.25% # Class of committed instruction. (Count)
system.cpu.commitStats0.committedInstType::SimdAlu            0      0.00%     81.25% # Class of committed instruction. (Count)
system.cpu.commitStats0.committedInstType::SimdCmp            0      0.00%     81.25% # Class of committed instruction. (Count)
system.cpu.commitStats0.committedInstType::SimdCvt            0      0.00%     81.25% # Class of committed instruction. (Count)
system.cpu.commitStats0.committedInstType::SimdMisc            0      0.00%     81.25% # Class of committed instruction. (Count)
system.cpu.commitStats0.committedInstType::SimdMult            0      0.00%     81.25% # Class of committed instruction. (Count)
system.cpu.commitStats0.committedInstType::SimdMultAcc            0      0.00%     81.25% # Class of committed instruction. (Count)
system.cpu.commitStats0.committedInstType::SimdMatMultAcc            0      0.00%     81.25% # Class of committed instruction. (Count)
system.cpu.commitStats0.committedInstType::SimdShift            0      0.00%     81.25% # Class of committed instruction. (Count)
system.cpu.commitStats0.committedInstType::SimdShiftAcc            0      0.00%     81.25% # Class of committed instruction. (Count)
system.cpu.commitStats0.committedInstType::SimdDiv            0      0.00%     81.25% # Class of committed instruction. (Count)
system.cpu.commitStats0.committedInstType::SimdSqrt            0      0.00%     81.25% # Class of committed instruction. (Count)
system.cpu.commitStats0.committedInstType::SimdFloatAdd            0      0.00%     81.25% # Class of committed instruction. (Count)
system.cpu.commitStats0.committedInstType::SimdFloatAlu            0      0.00%     81.25% # Class of committed instruction. (Count)
system.cpu.commitStats0.committedInstType::SimdFloatCmp            0      0.00%     81.25% # Class of committed instruction. (Count)
system.cpu.commitStats0.committedInstType::SimdFloatCvt            0      0.00%     81.25% # Class of committed instruction. (Count)
system.cpu.commitStats0.committedInstType::SimdFloatDiv            0      0.00%     81.25% # Class of committed instruction. (Count)
system.cpu.commitStats0.committedInstType::SimdFloatMisc            0      0.00%     81.25% # Class of committed instruction. (Count)
system.cpu.commitStats0.committedInstType::SimdFloatMult            0      0.00%     81.25% # Class of committed instruction. (Count)
system.cpu.commitStats0.committedInstType::SimdFloatMultAcc            0      0.00%     81.25% # Class of committed instruction. (Count)
system.cpu.commitStats0.committedInstType::SimdFloatMatMultAcc            0      0.00%     81.25% # Class of committed instruction. (Count)
system.cpu.commitStats0.committedInstType::SimdFloatSqrt            0      0.00%     81.25% # Class of committed instruction. (Count)
system.cpu.commitStats0.committedInstType::SimdReduceAdd            0      0.00%     81.25% # Class of committed instruction. (Count)
system.cpu.commitStats0.committedInstType::SimdReduceAlu            0      0.00%     81.25% # Class of committed instruction. (Count)
system.cpu.commitStats0.committedInstType::SimdReduceCmp            0      0.00%     81.25% # Class of committed instruction. (Count)
system.cpu.commitStats0.committedInstType::SimdFloatReduceAdd            0      0.00%     81.25% # Class of committed instruction. (Count)
system.cpu.commitStats0.committedInstType::SimdFloatReduceCmp            0      0.00%     81.25% # Class of committed instruction. (Count)
system.cpu.commitStats0.committedInstType::SimdAes            0      0.00%     81.25% # Class of committed instruction. (Count)
system.cpu.commitStats0.committedInstType::SimdAesMix            0      0.00%     81.25% # Class of committed instruction. (Count)
system.cpu.commitStats0.committedInstType::SimdSha1Hash            0      0.00%     81.25% # Class of committed instruction. (Count)
system.cpu.commitStats0.committedInstType::SimdSha1Hash2            0      0.00%     81.25% # Class of committed instruction. (Count)
system.cpu.commitStats0.committedInstType::SimdSha256Hash            0      0.00%     81.25% # Class of committed instruction. (Count)
system.cpu.commitStats0.committedInstType::SimdSha256Hash2            0      0.00%     81.25% # Class of committed instruction. (Count)
system.cpu.commitStats0.committedInstType::SimdShaSigma2            0      0.00%     81.25% # Class of committed instruction. (Count)
system.cpu.commitStats0.committedInstType::SimdShaSigma3            0      0.00%     81.25% # Class of committed instruction. (Count)
system.cpu.commitStats0.committedInstType::SimdPredAlu            0      0.00%     81.25% # Class of committed instruction. (Count)
system.cpu.commitStats0.committedInstType::Matrix            0      0.00%     81.25% # Class of committed instruction. (Count)
system.cpu.commitStats0.committedInstType::MatrixMov            0      0.00%     81.25% # Class of committed instruction. (Count)
system.cpu.commitStats0.committedInstType::MatrixOP            0      0.00%     81.25% # Class of committed instruction. (Count)
system.cpu.commitStats0.committedInstType::MemRead         1110     10.10%     91.35% # Class of committed instruction. (Count)
system.cpu.commitStats0.committedInstType::MemWrite          951      8.65%    100.00% # Class of committed instruction. (Count)
system.cpu.commitStats0.committedInstType::FloatMemRead            0      0.00%    100.00% # Class of committed instruction. (Count)
system.cpu.commitStats0.committedInstType::FloatMemWrite            0      0.00%    100.00% # Class of committed instruction. (Count)
system.cpu.commitStats0.committedInstType::IprAccess            0      0.00%    100.00% # Class of committed instruction. (Count)
system.cpu.commitStats0.committedInstType::InstPrefetch            0      0.00%    100.00% # Class of committed instruction. (Count)
system.cpu.commitStats0.committedInstType::SimdUnitStrideLoad            0      0.00%    100.00% # Class of committed instruction. (Count)
system.cpu.commitStats0.committedInstType::SimdUnitStrideStore            0      0.00%    100.00% # Class of committed instruction. (Count)
system.cpu.commitStats0.committedInstType::SimdUnitStrideMaskLoad            0      0.00%    100.00% # Class of committed instruction. (Count)
system.cpu.commitStats0.committedInstType::SimdUnitStrideMaskStore            0      0.00%    100.00% # Class of committed instruction. (Count)
system.cpu.commitStats0.committedInstType::SimdStridedLoad            0      0.00%    100.00% # Class of committed instruction. (Count)
system.cpu.commitStats0.committedInstType::SimdStridedStore            0      0.00%    100.00% # Class of committed instruction. (Count)
system.cpu.commitStats0.committedInstType::SimdIndexedLoad            0      0.00%    100.00% # Class of committed instruction. (Count)
system.cpu.commitStats0.committedInstType::SimdIndexedStore            0      0.00%    100.00% # Class of committed instruction. (Count)
system.cpu.commitStats0.committedInstType::SimdWholeRegisterLoad            0      0.00%    100.00% # Class of committed instruction. (Count)
system.cpu.commitStats0.committedInstType::SimdWholeRegisterStore            0      0.00%    100.00% # Class of committed instruction. (Count)
system.cpu.commitStats0.committedInstType::SimdUnitStrideFaultOnlyFirstLoad            0      0.00%    100.00% # Class of committed instruction. (Count)
system.cpu.commitStats0.committedInstType::SimdUnitStrideSegmentedLoad            0      0.00%    100.00% # Class of committed instruction. (Count)
system.cpu.commitStats0.committedInstType::SimdUnitStrideSegmentedStore            0      0.00%    100.00% # Class of committed instruction. (Count)
system.cpu.commitStats0.committedInstType::SimdExt            0      0.00%    100.00% # Class of committed instruction. (Count)
system.cpu.commitStats0.committedInstType::SimdFloatExt            0      0.00%    100.00% # Class of committed instruction. (Count)
system.cpu.commitStats0.committedInstType::SimdConfig            0      0.00%    100.00% # Class of committed instruction. (Count)
system.cpu.commitStats0.committedInstType::total        10991                       # Class of committed instruction. (Count)
system.cpu.commitStats0.committedControl::IsControl         1421                       # Class of control type instructions committed (Count)
system.cpu.commitStats0.committedControl::IsDirectControl         1259                       # Class of control type instructions committed (Count)
system.cpu.commitStats0.committedControl::IsIndirectControl          162                       # Class of control type instructions committed (Count)
system.cpu.commitStats0.committedControl::IsCondControl         1085                       # Class of control type instructions committed (Count)
system.cpu.commitStats0.committedControl::IsUncondControl          336                       # Class of control type instructions committed (Count)
system.cpu.commitStats0.committedControl::IsCall          120                       # Class of control type instructions committed (Count)
system.cpu.commitStats0.committedControl::IsReturn          117                       # Class of control type instructions committed (Count)
system.cpu.exec_context.thread_0.numMatAluAccesses            0                       # Number of matrix alu accesses (Count)
system.cpu.exec_context.thread_0.numCallsReturns          237                       # Number of times a function call or return occured (Count)
system.cpu.exec_context.thread_0.numMatInsts            0                       # Number of matrix instructions (Count)
system.cpu.exec_context.thread_0.numIdleCycles     0.002000                       # Number of idle cycles (Cycle)
system.cpu.exec_context.thread_0.numBusyCycles 868294.998000                       # Number of busy cycles (Cycle)
system.cpu.exec_context.thread_0.notIdleFraction     1.000000                       # Percentage of non-idle cycles (Ratio)
system.cpu.exec_context.thread_0.idleFraction     0.000000                       # Percentage of idle cycles (Ratio)
system.cpu.executeStats0.numInsts                   0                       # Number of executed instructions (Count)
system.cpu.executeStats0.numNop                     0                       # Number of nop insts executed (Count)
system.cpu.executeStats0.numBranches                0                       # Number of branches executed (Count)
system.cpu.executeStats0.numLoadInsts               0                       # Number of load instructions executed (Count)
system.cpu.executeStats0.numStoreInsts           2061                       # Number of stores executed (Count)
system.cpu.executeStats0.instRate                   0                       # Inst execution rate ((Count/Cycle))
system.cpu.executeStats0.numFpRegWrites             0                       # Number of times the floating registers were written (Count)
system.cpu.executeStats0.numIntAluAccesses        10848                       # Number of integer alu accesses (Count)
system.cpu.executeStats0.numIntRegReads         11941                       # Number of times the integer registers were read (Count)
system.cpu.executeStats0.numIntRegWrites         7608                       # Number of times the integer registers were written (Count)
system.cpu.executeStats0.numMemRefs              2061                       # Number of memory refs (Count)
system.cpu.executeStats0.numMiscRegReads         4930                       # Number of times the Misc registers were read (Count)
system.cpu.executeStats0.numMiscRegWrites            1                       # Number of times the Misc registers were written (Count)
system.cpu.executeStats0.numVecAluAccesses            0                       # Number of vector alu accesses (Count)
system.cpu.executeStats0.numDiscardedOps            0                       # Number of ops (including micro ops) which were discarded before commit (Count)
system.cpu.fetchStats0.numInsts                  6104                       # Number of instructions fetched (thread level) (Count)
system.cpu.fetchStats0.numOps                   10991                       # Number of ops (including micro ops) fetched (thread level) (Count)
system.cpu.fetchStats0.fetchRate             0.007030                       # Number of inst fetches per cycle ((Count/Cycle))
system.cpu.fetchStats0.numBranches               1421                       # Number of branches fetched (Count)
system.cpu.fetchStats0.branchRate            0.001637                       # Number of branch fetches per cycle (Ratio)
system.cpu.fetchStats0.numFetchSuspends             0                       # Number of times Execute suspended instruction fetching (Count)
system.cpu.interrupts.clk_domain.clock           8000                       # Clock period in ticks (Tick)
system.cpu.mmu.dtb.rdAccesses                    1110                       # TLB accesses on read requests (Count)
system.cpu.mmu.dtb.wrAccesses                     951                       # TLB accesses on write requests (Count)
system.cpu.mmu.dtb.rdMisses                        11                       # TLB misses on read requests (Count)
system.cpu.mmu.dtb.wrMisses                         9                       # TLB misses on write requests (Count)
system.cpu.mmu.dtb.walker.power_state.pwrStateResidencyTicks::UNDEFINED    434147500                       # Cumulative time (in ticks) in various power states (Tick)
system.cpu.mmu.itb.rdAccesses                       0                       # TLB accesses on read requests (Count)
system.cpu.mmu.itb.wrAccesses                    7771                       # TLB accesses on write requests (Count)
system.cpu.mmu.itb.rdMisses                         0                       # TLB misses on read requests (Count)
system.cpu.mmu.itb.wrMisses                        37                       # TLB misses on write requests (Count)
system.cpu.mmu.itb.walker.power_state.pwrStateResidencyTicks::UNDEFINED    434147500                       # Cumulative time (in ticks) in various power states (Tick)
system.cpu.power_state.pwrStateResidencyTicks::ON    434147500                       # Cumulative time (in ticks) in various power states (Tick)
system.cpu.thread_0.numInsts                        0                       # Number of Instructions committed (Count)
system.cpu.thread_0.numOps                          0                       # Number of Ops committed (Count)
system.cpu.thread_0.numMemRefs                      0                       # Number of Memory References (Count)
system.cpu.workload.numSyscalls                    11                       # Number of system calls (Count)
system.cpu1.numCycles                               0                       # Number of cpu cycles simulated (Cycle)
system.cpu1.cpi                                   nan                       # CPI: cycles per instruction (core level) ((Cycle/Count))
system.cpu1.ipc                                   nan                       # IPC: instructions per cycle (core level) ((Count/Cycle))
system.cpu1.numWorkItemsStarted                     0                       # Number of work items this cpu started (Count)
system.cpu1.numWorkItemsCompleted                   0                       # Number of work items this cpu completed (Count)
system.cpu1.commitStats0.numOps                     0                       # Number of ops (including micro ops) committed (thread level) (Count)
system.cpu1.commitStats0.numInstsNotNOP             0                       # Number of instructions committed excluding NOPs or prefetches (Count)
system.cpu1.commitStats0.numOpsNotNOP               0                       # Number of Ops (including micro ops) Simulated (Count)
system.cpu1.commitStats0.cpi                      nan                       # CPI: cycles per instruction (thread level) ((Cycle/Count))
system.cpu1.commitStats0.ipc                      nan                       # IPC: instructions per cycle (thread level) ((Count/Cycle))
system.cpu1.commitStats0.numMemRefs                 0                       # Number of memory references committed (Count)
system.cpu1.commitStats0.numFpInsts                 0                       # Number of float instructions (Count)
system.cpu1.commitStats0.numIntInsts                0                       # Number of integer instructions (Count)
system.cpu1.commitStats0.numLoadInsts               0                       # Number of load instructions (Count)
system.cpu1.commitStats0.numStoreInsts              0                       # Number of store instructions (Count)
system.cpu1.commitStats0.numVecInsts                0                       # Number of vector instructions (Count)
system.cpu1.commitStats0.committedInstType::No_OpClass            0                       # Class of committed instruction. (Count)
system.cpu1.commitStats0.committedInstType::IntAlu            0                       # Class of committed instruction. (Count)
system.cpu1.commitStats0.committedInstType::IntMult            0                       # Class of committed instruction. (Count)
system.cpu1.commitStats0.committedInstType::IntDiv            0                       # Class of committed instruction. (Count)
system.cpu1.commitStats0.committedInstType::FloatAdd            0                       # Class of committed instruction. (Count)
system.cpu1.commitStats0.committedInstType::FloatCmp            0                       # Class of committed instruction. (Count)
system.cpu1.commitStats0.committedInstType::FloatCvt            0                       # Class of committed instruction. (Count)
system.cpu1.commitStats0.committedInstType::FloatMult            0                       # Class of committed instruction. (Count)
system.cpu1.commitStats0.committedInstType::FloatMultAcc            0                       # Class of committed instruction. (Count)
system.cpu1.commitStats0.committedInstType::FloatDiv            0                       # Class of committed instruction. (Count)
system.cpu1.commitStats0.committedInstType::FloatMisc            0                       # Class of committed instruction. (Count)
system.cpu1.commitStats0.committedInstType::FloatSqrt            0                       # Class of committed instruction. (Count)
system.cpu1.commitStats0.committedInstType::SimdAdd            0                       # Class of committed instruction. (Count)
system.cpu1.commitStats0.committedInstType::SimdAddAcc            0                       # Class of committed instruction. (Count)
system.cpu1.commitStats0.committedInstType::SimdAlu            0                       # Class of committed instruction. (Count)
system.cpu1.commitStats0.committedInstType::SimdCmp            0                       # Class of committed instruction. (Count)
system.cpu1.commitStats0.committedInstType::SimdCvt            0                       # Class of committed instruction. (Count)
system.cpu1.commitStats0.committedInstType::SimdMisc            0                       # Class of committed instruction. (Count)
system.cpu1.commitStats0.committedInstType::SimdMult            0                       # Class of committed instruction. (Count)
system.cpu1.commitStats0.committedInstType::SimdMultAcc            0                       # Class of committed instruction. (Count)
system.cpu1.commitStats0.committedInstType::SimdMatMultAcc            0                       # Class of committed instruction. (Count)
system.cpu1.commitStats0.committedInstType::SimdShift            0                       # Class of committed instruction. (Count)
system.cpu1.commitStats0.committedInstType::SimdShiftAcc            0                       # Class of committed instruction. (Count)
system.cpu1.commitStats0.committedInstType::SimdDiv            0                       # Class of committed instruction. (Count)
system.cpu1.commitStats0.committedInstType::SimdSqrt            0                       # Class of committed instruction. (Count)
system.cpu1.commitStats0.committedInstType::SimdFloatAdd            0                       # Class of committed instruction. (Count)
system.cpu1.commitStats0.committedInstType::SimdFloatAlu            0                       # Class of committed instruction. (Count)
system.cpu1.commitStats0.committedInstType::SimdFloatCmp            0                       # Class of committed instruction. (Count)
system.cpu1.commitStats0.committedInstType::SimdFloatCvt            0                       # Class of committed instruction. (Count)
system.cpu1.commitStats0.committedInstType::SimdFloatDiv            0                       # Class of committed instruction. (Count)
system.cpu1.commitStats0.committedInstType::SimdFloatMisc            0                       # Class of committed instruction. (Count)
system.cpu1.commitStats0.committedInstType::SimdFloatMult            0                       # Class of committed instruction. (Count)
system.cpu1.commitStats0.committedInstType::SimdFloatMultAcc            0                       # Class of committed instruction. (Count)
system.cpu1.commitStats0.committedInstType::SimdFloatMatMultAcc            0                       # Class of committed instruction. (Count)
system.cpu1.commitStats0.committedInstType::SimdFloatSqrt            0                       # Class of committed instruction. (Count)
system.cpu1.commitStats0.committedInstType::SimdReduceAdd            0                       # Class of committed instruction. (Count)
system.cpu1.commitStats0.committedInstType::SimdReduceAlu            0                       # Class of committed instruction. (Count)
system.cpu1.commitStats0.committedInstType::SimdReduceCmp            0                       # Class of committed instruction. (Count)
system.cpu1.commitStats0.committedInstType::SimdFloatReduceAdd            0                       # Class of committed instruction. (Count)
system.cpu1.commitStats0.committedInstType::SimdFloatReduceCmp            0                       # Class of committed instruction. (Count)
system.cpu1.commitStats0.committedInstType::SimdAes            0                       # Class of committed instruction. (Count)
system.cpu1.commitStats0.committedInstType::SimdAesMix            0                       # Class of committed instruction. (Count)
system.cpu1.commitStats0.committedInstType::SimdSha1Hash            0                       # Class of committed instruction. (Count)
system.cpu1.commitStats0.committedInstType::SimdSha1Hash2            0                       # Class of committed instruction. (Count)
system.cpu1.commitStats0.committedInstType::SimdSha256Hash            0                       # Class of committed instruction. (Count)
system.cpu1.commitStats0.committedInstType::SimdSha256Hash2            0                       # Class of committed instruction. (Count)
system.cpu1.commitStats0.committedInstType::SimdShaSigma2            0                       # Class of committed instruction. (Count)
system.cpu1.commitStats0.committedInstType::SimdShaSigma3            0                       # Class of committed instruction. (Count)
system.cpu1.commitStats0.committedInstType::SimdPredAlu            0                       # Class of committed instruction. (Count)
system.cpu1.commitStats0.committedInstType::Matrix            0                       # Class of committed instruction. (Count)
system.cpu1.commitStats0.committedInstType::MatrixMov            0                       # Class of committed instruction. (Count)
system.cpu1.commitStats0.committedInstType::MatrixOP            0                       # Class of committed instruction. (Count)
system.cpu1.commitStats0.committedInstType::MemRead            0                       # Class of committed instruction. (Count)
system.cpu1.commitStats0.committedInstType::MemWrite            0                       # Class of committed instruction. (Count)
system.cpu1.commitStats0.committedInstType::FloatMemRead            0                       # Class of committed instruction. (Count)
system.cpu1.commitStats0.committedInstType::FloatMemWrite            0                       # Class of committed instruction. (Count)
system.cpu1.commitStats0.committedInstType::IprAccess            0                       # Class of committed instruction. (Count)
system.cpu1.commitStats0.committedInstType::InstPrefetch            0                       # Class of committed instruction. (Count)
system.cpu1.commitStats0.committedInstType::SimdUnitStrideLoad            0                       # Class of committed instruction. (Count)
system.cpu1.commitStats0.committedInstType::SimdUnitStrideStore            0                       # Class of committed instruction. (Count)
system.cpu1.commitStats0.committedInstType::SimdUnitStrideMaskLoad            0                       # Class of committed instruction. (Count)
system.cpu1.commitStats0.committedInstType::SimdUnitStrideMaskStore            0                       # Class of committed instruction. (Count)
system.cpu1.commitStats0.committedInstType::SimdStridedLoad            0                       # Class of committed instruction. (Count)
system.cpu1.commitStats0.committedInstType::SimdStridedStore            0                       # Class of committed instruction. (Count)
system.cpu1.commitStats0.committedInstType::SimdIndexedLoad            0                       # Class of committed instruction. (Count)
system.cpu1.commitStats0.committedInstType::SimdIndexedStore            0                       # Class of committed instruction. (Count)
system.cpu1.commitStats0.committedInstType::SimdWholeRegisterLoad            0                       # Class of committed instruction. (Count)
system.cpu1.commitStats0.committedInstType::SimdWholeRegisterStore            0                       # Class of committed instruction. (Count)
system.cpu1.commitStats0.committedInstType::SimdUnitStrideFaultOnlyFirstLoad            0                       # Class of committed instruction. (Count)
system.cpu1.commitStats0.committedInstType::SimdUnitStrideSegmentedLoad            0                       # Class of committed instruction. (Count)
system.cpu1.commitStats0.committedInstType::SimdUnitStrideSegmentedStore            0                       # Class of committed instruction. (Count)
system.cpu1.commitStats0.committedInstType::SimdExt            0                       # Class of committed instruction. (Count)
system.cpu1.commitStats0.committedInstType::SimdFloatExt            0                       # Class of committed instruction. (Count)
system.cpu1.commitStats0.committedInstType::SimdConfig            0                       # Class of committed instruction. (Count)
system.cpu1.commitStats0.committedInstType::total            0                       # Class of committed instruction. (Count)
system.cpu1.exec_context.thread_0.numMatAluAccesses            0                       # Number of matrix alu accesses (Count)
system.cpu1.exec_context.thread_0.numCallsReturns            0                       # Number of times a function call or return occured (Count)
system.cpu1.exec_context.thread_0.numMatInsts            0                       # Number of matrix instructions (Count)
system.cpu1.exec_context.thread_0.numIdleCycles            0                       # Number of idle cycles (Cycle)
system.cpu1.exec_context.thread_0.numBusyCycles            0                       # Number of busy cycles (Cycle)
system.cpu1.exec_context.thread_0.notIdleFraction            0                       # Percentage of non-idle cycles (Ratio)
system.cpu1.exec_context.thread_0.idleFraction            1                       # Percentage of idle cycles (Ratio)
system.cpu1.executeStats0.numInsts                  0                       # Number of executed instructions (Count)
system.cpu1.executeStats0.numNop                    0                       # Number of nop insts executed (Count)
system.cpu1.executeStats0.numBranches               0                       # Number of branches executed (Count)
system.cpu1.executeStats0.numLoadInsts              0                       # Number of load instructions executed (Count)
system.cpu1.executeStats0.numStoreInsts             0                       # Number of stores executed (Count)
system.cpu1.executeStats0.instRate                nan                       # Inst execution rate ((Count/Cycle))
system.cpu1.executeStats0.numFpRegWrites            0                       # Number of times the floating registers were written (Count)
system.cpu1.executeStats0.numMemRefs                0                       # Number of memory refs (Count)
system.cpu1.executeStats0.numVecAluAccesses            0                       # Number of vector alu accesses (Count)
system.cpu1.executeStats0.numDiscardedOps            0                       # Number of ops (including micro ops) which were discarded before commit (Count)
system.cpu1.fetchStats0.numInsts                    0                       # Number of instructions fetched (thread level) (Count)
system.cpu1.fetchStats0.numOps                      0                       # Number of ops (including micro ops) fetched (thread level) (Count)
system.cpu1.fetchStats0.fetchRate                 nan                       # Number of inst fetches per cycle ((Count/Cycle))
system.cpu1.fetchStats0.branchRate                nan                       # Number of branch fetches per cycle (Ratio)
system.cpu1.fetchStats0.numFetchSuspends            0                       # Number of times Execute suspended instruction fetching (Count)
system.cpu1.interrupts.clk_domain.clock          8000                       # Clock period in ticks (Tick)
system.cpu1.mmu.dtb.rdAccesses                      0                       # TLB accesses on read requests (Count)
system.cpu1.mmu.dtb.wrAccesses                      0                       # TLB accesses on write requests (Count)
system.cpu1.mmu.dtb.rdMisses                        0                       # TLB misses on read requests (Count)
system.cpu1.mmu.dtb.wrMisses                        0                       # TLB misses on write requests (Count)
system.cpu1.mmu.dtb.walker.power_state.pwrStateResidencyTicks::UNDEFINED    434147500                       # Cumulative time (in ticks) in various power states (Tick)
system.cpu1.mmu.itb.rdAccesses                      0                       # TLB accesses on read requests (Count)
system.cpu1.mmu.itb.wrAccesses                      0                       # TLB accesses on write requests (Count)
system.cpu1.mmu.itb.rdMisses                        0                       # TLB misses on read requests (Count)
system.cpu1.mmu.itb.wrMisses                        0                       # TLB misses on write requests (Count)
system.cpu1.mmu.itb.walker.power_state.pwrStateResidencyTicks::UNDEFINED    434147500                       # Cumulative time (in ticks) in various power states (Tick)
system.cpu1.power_state.pwrStateResidencyTicks::ON    434147500                       # Cumulative time (in ticks) in various power states (Tick)
system.cpu1.thread_0.numInsts                       0                       # Number of Instructions committed (Count)
system.cpu1.thread_0.numOps                         0                       # Number of Ops committed (Count)
system.cpu1.thread_0.numMemRefs                     0                       # Number of Memory References (Count)
system.cxlswitch.power_state.pwrStateResidencyTicks::UNDEFINED    434147500                       # Cumulative time (in ticks) in various power states (Tick)
system.mem_ctrl.avgPriority_cpu.inst::samples      7771.00                       # Average QoS priority value for accepted requests (Count)
system.mem_ctrl.avgPriority_cpu.data::samples      1063.00                       # Average QoS priority value for accepted requests (Count)
system.mem_ctrl.priorityMinLatency       0.000000018750                       # per QoS priority minimum request to response latency (Second)
system.mem_ctrl.priorityMaxLatency       0.000418427500                       # per QoS priority maximum request to response latency (Second)
system.mem_ctrl.numReadWriteTurnArounds             6                       # Number of turnarounds from READ to WRITE (Count)
system.mem_ctrl.numWriteReadTurnArounds             6                       # Number of turnarounds from WRITE to READ (Count)
system.mem_ctrl.numStayReadState                18467                       # Number of times bus staying in READ state (Count)
system.mem_ctrl.numStayWriteState                  90                       # Number of times bus staying in WRITE state (Count)
system.mem_ctrl.readReqs                         8881                       # Number of read requests accepted (Count)
system.mem_ctrl.writeReqs                         949                       # Number of write requests accepted (Count)
system.mem_ctrl.readBursts                       8881                       # Number of controller read bursts, including those serviced by the write queue (Count)
system.mem_ctrl.writeBursts                       949                       # Number of controller write bursts, including those merged in the write queue (Count)
system.mem_ctrl.servicedByWrQ                     174                       # Number of controller read bursts serviced by the write queue (Count)
system.mem_ctrl.mergedWrBursts                    822                       # Number of controller write bursts merged with an existing one (Count)
system.mem_ctrl.neitherReadNorWriteReqs             0                       # Number of requests that are neither read nor write (Count)
system.mem_ctrl.avgRdQLen                        1.00                       # Average read queue length when enqueuing ((Count/Tick))
system.mem_ctrl.avgWrQLen                       23.75                       # Average write queue length when enqueuing ((Count/Tick))
system.mem_ctrl.numRdRetry                          0                       # Number of times read queue was full causing retry (Count)
system.mem_ctrl.numWrRetry                          0                       # Number of times write queue was full causing retry (Count)
system.mem_ctrl.readPktSize::0                    148                       # Read request sizes (log2) (Count)
system.mem_ctrl.readPktSize::1                     14                       # Read request sizes (log2) (Count)
system.mem_ctrl.readPktSize::2                    119                       # Read request sizes (log2) (Count)
system.mem_ctrl.readPktSize::3                   8600                       # Read request sizes (log2) (Count)
system.mem_ctrl.readPktSize::4                      0                       # Read request sizes (log2) (Count)
system.mem_ctrl.readPktSize::5                      0                       # Read request sizes (log2) (Count)
system.mem_ctrl.readPktSize::6                      0                       # Read request sizes (log2) (Count)
system.mem_ctrl.writePktSize::0                    14                       # Write request sizes (log2) (Count)
system.mem_ctrl.writePktSize::1                     3                       # Write request sizes (log2) (Count)
system.mem_ctrl.writePktSize::2                    63                       # Write request sizes (log2) (Count)
system.mem_ctrl.writePktSize::3                   869                       # Write request sizes (log2) (Count)
system.mem_ctrl.writePktSize::4                     0                       # Write request sizes (log2) (Count)
system.mem_ctrl.writePktSize::5                     0                       # Write request sizes (log2) (Count)
system.mem_ctrl.writePktSize::6                     0                       # Write request sizes (log2) (Count)
system.mem_ctrl.rdQLenPdf::0                     8707                       # What read queue length does an incoming req see (Count)
system.mem_ctrl.rdQLenPdf::1                        0                       # What read queue length does an incoming req see (Count)
system.mem_ctrl.rdQLenPdf::2                        0                       # What read queue length does an incoming req see (Count)
system.mem_ctrl.rdQLenPdf::3                        0                       # What read queue length does an incoming req see (Count)
system.mem_ctrl.rdQLenPdf::4                        0                       # What read queue length does an incoming req see (Count)
system.mem_ctrl.rdQLenPdf::5                        0                       # What read queue length does an incoming req see (Count)
system.mem_ctrl.rdQLenPdf::6                        0                       # What read queue length does an incoming req see (Count)
system.mem_ctrl.rdQLenPdf::7                        0                       # What read queue length does an incoming req see (Count)
system.mem_ctrl.rdQLenPdf::8                        0                       # What read queue length does an incoming req see (Count)
system.mem_ctrl.rdQLenPdf::9                        0                       # What read queue length does an incoming req see (Count)
system.mem_ctrl.rdQLenPdf::10                       0                       # What read queue length does an incoming req see (Count)
system.mem_ctrl.rdQLenPdf::11                       0                       # What read queue length does an incoming req see (Count)
system.mem_ctrl.rdQLenPdf::12                       0                       # What read queue length does an incoming req see (Count)
system.mem_ctrl.rdQLenPdf::13                       0                       # What read queue length does an incoming req see (Count)
system.mem_ctrl.rdQLenPdf::14                       0                       # What read queue length does an incoming req see (Count)
system.mem_ctrl.rdQLenPdf::15                       0                       # What read queue length does an incoming req see (Count)
system.mem_ctrl.rdQLenPdf::16                       0                       # What read queue length does an incoming req see (Count)
system.mem_ctrl.rdQLenPdf::17                       0                       # What read queue length does an incoming req see (Count)
system.mem_ctrl.rdQLenPdf::18                       0                       # What read queue length does an incoming req see (Count)
system.mem_ctrl.rdQLenPdf::19                       0                       # What read queue length does an incoming req see (Count)
system.mem_ctrl.rdQLenPdf::20                       0                       # What read queue length does an incoming req see (Count)
system.mem_ctrl.rdQLenPdf::21                       0                       # What read queue length does an incoming req see (Count)
system.mem_ctrl.rdQLenPdf::22                       0                       # What read queue length does an incoming req see (Count)
system.mem_ctrl.rdQLenPdf::23                       0                       # What read queue length does an incoming req see (Count)
system.mem_ctrl.rdQLenPdf::24                       0                       # What read queue length does an incoming req see (Count)
system.mem_ctrl.rdQLenPdf::25                       0                       # What read queue length does an incoming req see (Count)
system.mem_ctrl.rdQLenPdf::26                       0                       # What read queue length does an incoming req see (Count)
system.mem_ctrl.rdQLenPdf::27                       0                       # What read queue length does an incoming req see (Count)
system.mem_ctrl.rdQLenPdf::28                       0                       # What read queue length does an incoming req see (Count)
system.mem_ctrl.rdQLenPdf::29                       0                       # What read queue length does an incoming req see (Count)
system.mem_ctrl.rdQLenPdf::30                       0                       # What read queue length does an incoming req see (Count)
system.mem_ctrl.rdQLenPdf::31                       0                       # What read queue length does an incoming req see (Count)
system.mem_ctrl.wrQLenPdf::0                        1                       # What write queue length does an incoming req see (Count)
system.mem_ctrl.wrQLenPdf::1                        1                       # What write queue length does an incoming req see (Count)
system.mem_ctrl.wrQLenPdf::2                        1                       # What write queue length does an incoming req see (Count)
system.mem_ctrl.wrQLenPdf::3                        1                       # What write queue length does an incoming req see (Count)
system.mem_ctrl.wrQLenPdf::4                        1                       # What write queue length does an incoming req see (Count)
system.mem_ctrl.wrQLenPdf::5                        1                       # What write queue length does an incoming req see (Count)
system.mem_ctrl.wrQLenPdf::6                        1                       # What write queue length does an incoming req see (Count)
system.mem_ctrl.wrQLenPdf::7                        1                       # What write queue length does an incoming req see (Count)
system.mem_ctrl.wrQLenPdf::8                        1                       # What write queue length does an incoming req see (Count)
system.mem_ctrl.wrQLenPdf::9                        1                       # What write queue length does an incoming req see (Count)
system.mem_ctrl.wrQLenPdf::10                       1                       # What write queue length does an incoming req see (Count)
system.mem_ctrl.wrQLenPdf::11                       1                       # What write queue length does an incoming req see (Count)
system.mem_ctrl.wrQLenPdf::12                       1                       # What write queue length does an incoming req see (Count)
system.mem_ctrl.wrQLenPdf::13                       1                       # What write queue length does an incoming req see (Count)
system.mem_ctrl.wrQLenPdf::14                       1                       # What write queue length does an incoming req see (Count)
system.mem_ctrl.wrQLenPdf::15                       1                       # What write queue length does an incoming req see (Count)
system.mem_ctrl.wrQLenPdf::16                       1                       # What write queue length does an incoming req see (Count)
system.mem_ctrl.wrQLenPdf::17                       7                       # What write queue length does an incoming req see (Count)
system.mem_ctrl.wrQLenPdf::18                       7                       # What write queue length does an incoming req see (Count)
system.mem_ctrl.wrQLenPdf::19                       7                       # What write queue length does an incoming req see (Count)
system.mem_ctrl.wrQLenPdf::20                       7                       # What write queue length does an incoming req see (Count)
system.mem_ctrl.wrQLenPdf::21                       7                       # What write queue length does an incoming req see (Count)
system.mem_ctrl.wrQLenPdf::22                       7                       # What write queue length does an incoming req see (Count)
system.mem_ctrl.wrQLenPdf::23                       7                       # What write queue length does an incoming req see (Count)
system.mem_ctrl.wrQLenPdf::24                       7                       # What write queue length does an incoming req see (Count)
system.mem_ctrl.wrQLenPdf::25                       7                       # What write queue length does an incoming req see (Count)
system.mem_ctrl.wrQLenPdf::26                       7                       # What write queue length does an incoming req see (Count)
system.mem_ctrl.wrQLenPdf::27                       7                       # What write queue length does an incoming req see (Count)
system.mem_ctrl.wrQLenPdf::28                       7                       # What write queue length does an incoming req see (Count)
system.mem_ctrl.wrQLenPdf::29                       7                       # What write queue length does an incoming req see (Count)
system.mem_ctrl.wrQLenPdf::30                       7                       # What write queue length does an incoming req see (Count)
system.mem_ctrl.wrQLenPdf::31                       6                       # What write queue length does an incoming req see (Count)
system.mem_ctrl.wrQLenPdf::32                       6                       # What write queue length does an incoming req see (Count)
system.mem_ctrl.wrQLenPdf::33                       0                       # What write queue length does an incoming req see (Count)
system.mem_ctrl.wrQLenPdf::34                       0                       # What write queue length does an incoming req see (Count)
system.mem_ctrl.wrQLenPdf::35                       0                       # What write queue length does an incoming req see (Count)
system.mem_ctrl.wrQLenPdf::36                       0                       # What write queue length does an incoming req see (Count)
system.mem_ctrl.wrQLenPdf::37                       0                       # What write queue length does an incoming req see (Count)
system.mem_ctrl.wrQLenPdf::38                       0                       # What write queue length does an incoming req see (Count)
system.mem_ctrl.wrQLenPdf::39                       0                       # What write queue length does an incoming req see (Count)
system.mem_ctrl.wrQLenPdf::40                       0                       # What write queue length does an incoming req see (Count)
system.mem_ctrl.wrQLenPdf::41                       0                       # What write queue length does an incoming req see (Count)
system.mem_ctrl.wrQLenPdf::42                       0                       # What write queue length does an incoming req see (Count)
system.mem_ctrl.wrQLenPdf::43                       0                       # What write queue length does an incoming req see (Count)
system.mem_ctrl.wrQLenPdf::44                       0                       # What write queue length does an incoming req see (Count)
system.mem_ctrl.wrQLenPdf::45                       0                       # What write queue length does an incoming req see (Count)
system.mem_ctrl.wrQLenPdf::46                       0                       # What write queue length does an incoming req see (Count)
system.mem_ctrl.wrQLenPdf::47                       0                       # What write queue length does an incoming req see (Count)
system.mem_ctrl.wrQLenPdf::48                       0                       # What write queue length does an incoming req see (Count)
system.mem_ctrl.wrQLenPdf::49                       0                       # What write queue length does an incoming req see (Count)
system.mem_ctrl.wrQLenPdf::50                       0                       # What write queue length does an incoming req see (Count)
system.mem_ctrl.wrQLenPdf::51                       0                       # What write queue length does an incoming req see (Count)
system.mem_ctrl.wrQLenPdf::52                       0                       # What write queue length does an incoming req see (Count)
system.mem_ctrl.wrQLenPdf::53                       0                       # What write queue length does an incoming req see (Count)
system.mem_ctrl.wrQLenPdf::54                       0                       # What write queue length does an incoming req see (Count)
system.mem_ctrl.wrQLenPdf::55                       0                       # What write queue length does an incoming req see (Count)
system.mem_ctrl.wrQLenPdf::56                       0                       # What write queue length does an incoming req see (Count)
system.mem_ctrl.wrQLenPdf::57                       0                       # What write queue length does an incoming req see (Count)
system.mem_ctrl.wrQLenPdf::58                       0                       # What write queue length does an incoming req see (Count)
system.mem_ctrl.wrQLenPdf::59                       0                       # What write queue length does an incoming req see (Count)
system.mem_ctrl.wrQLenPdf::60                       0                       # What write queue length does an incoming req see (Count)
system.mem_ctrl.wrQLenPdf::61                       0                       # What write queue length does an incoming req see (Count)
system.mem_ctrl.wrQLenPdf::62                       0                       # What write queue length does an incoming req see (Count)
system.mem_ctrl.wrQLenPdf::63                       0                       # What write queue length does an incoming req see (Count)
system.mem_ctrl.rdPerTurnAround::samples            6                       # Reads before turning the bus around for writes (Count)
system.mem_ctrl.rdPerTurnAround::mean            1123                       # Reads before turning the bus around for writes (Count)
system.mem_ctrl.rdPerTurnAround::gmean     887.962983                       # Reads before turning the bus around for writes (Count)
system.mem_ctrl.rdPerTurnAround::stdev     791.952019                       # Reads before turning the bus around for writes (Count)
system.mem_ctrl.rdPerTurnAround::256-383            1     16.67%     16.67% # Reads before turning the bus around for writes (Count)
system.mem_ctrl.rdPerTurnAround::384-511            1     16.67%     33.33% # Reads before turning the bus around for writes (Count)
system.mem_ctrl.rdPerTurnAround::768-895            1     16.67%     50.00% # Reads before turning the bus around for writes (Count)
system.mem_ctrl.rdPerTurnAround::1280-1407            1     16.67%     66.67% # Reads before turning the bus around for writes (Count)
system.mem_ctrl.rdPerTurnAround::1408-1535            1     16.67%     83.33% # Reads before turning the bus around for writes (Count)
system.mem_ctrl.rdPerTurnAround::2432-2559            1     16.67%    100.00% # Reads before turning the bus around for writes (Count)
system.mem_ctrl.rdPerTurnAround::total              6                       # Reads before turning the bus around for writes (Count)
system.mem_ctrl.wrPerTurnAround::samples            6                       # Writes before turning the bus around for reads (Count)
system.mem_ctrl.wrPerTurnAround::mean              16                       # Writes before turning the bus around for reads (Count)
system.mem_ctrl.wrPerTurnAround::gmean      16.000000                       # Writes before turning the bus around for reads (Count)
system.mem_ctrl.wrPerTurnAround::16                 6    100.00%    100.00% # Writes before turning the bus around for reads (Count)
system.mem_ctrl.wrPerTurnAround::total              6                       # Writes before turning the bus around for reads (Count)
system.mem_ctrl.bytesReadWrQ                    11136                       # Total number of bytes read from write queue (Byte)
system.mem_ctrl.bytesReadSys                    69452                       # Total read bytes from the system interface side (Byte)
system.mem_ctrl.bytesWrittenSys                  7224                       # Total written bytes from the system interface side (Byte)
system.mem_ctrl.avgRdBWSys               159973280.97017717                       # Average system read bandwidth in Byte/s ((Byte/Second))
system.mem_ctrl.avgWrBWSys               16639506.15862121                       # Average system write bandwidth in Byte/s ((Byte/Second))
system.mem_ctrl.totGap                      434103000                       # Total gap between requests (Tick)
system.mem_ctrl.avgGap                       44161.04                       # Average gap between requests ((Tick/Count))
system.mem_ctrl.requestorReadBytes::cpu.inst        62168                       # Per-requestor bytes read from memory (Byte)
system.mem_ctrl.requestorReadBytes::cpu.data         6085                       # Per-requestor bytes read from memory (Byte)
system.mem_ctrl.requestorWriteBytes::cpu.data          724                       # Per-requestor bytes write to memory (Byte)
system.mem_ctrl.requestorReadRate::cpu.inst 143195572.933162122965                       # Per-requestor bytes read from memory rate ((Byte/Second))
system.mem_ctrl.requestorReadRate::cpu.data 14015973.833777690306                       # Per-requestor bytes read from memory rate ((Byte/Second))
system.mem_ctrl.requestorWriteRate::cpu.data 1667635.999285956845                       # Per-requestor bytes write to memory rate ((Byte/Second))
system.mem_ctrl.requestorReadAccesses::cpu.inst         7771                       # Per-requestor read serviced memory accesses (Count)
system.mem_ctrl.requestorReadAccesses::cpu.data         1110                       # Per-requestor read serviced memory accesses (Count)
system.mem_ctrl.requestorWriteAccesses::cpu.data          949                       # Per-requestor write serviced memory accesses (Count)
system.mem_ctrl.requestorReadTotalLat::cpu.inst    167632500                       # Per-requestor read total memory access latency (Tick)
system.mem_ctrl.requestorReadTotalLat::cpu.data     24583250                       # Per-requestor read total memory access latency (Tick)
system.mem_ctrl.requestorWriteTotalLat::cpu.data   7375151500                       # Per-requestor write total memory access latency (Tick)
system.mem_ctrl.requestorReadAvgLat::cpu.inst     21571.55                       # Per-requestor read average memory access latency ((Tick/Count))
system.mem_ctrl.requestorReadAvgLat::cpu.data     22147.07                       # Per-requestor read average memory access latency ((Tick/Count))
system.mem_ctrl.requestorWriteAvgLat::cpu.data   7771497.89                       # Per-requestor write average memory access latency ((Tick/Count))
system.mem_ctrl.dram.bytesRead::cpu.inst        62168                       # Number of bytes read from this memory (Byte)
system.mem_ctrl.dram.bytesRead::cpu.data         7284                       # Number of bytes read from this memory (Byte)
system.mem_ctrl.dram.bytesRead::total           69452                       # Number of bytes read from this memory (Byte)
system.mem_ctrl.dram.bytesInstRead::cpu.inst        62168                       # Number of instructions bytes read from this memory (Byte)
system.mem_ctrl.dram.bytesInstRead::total        62168                       # Number of instructions bytes read from this memory (Byte)
system.mem_ctrl.dram.bytesWritten::cpu.data         7224                       # Number of bytes written to this memory (Byte)
system.mem_ctrl.dram.bytesWritten::total         7224                       # Number of bytes written to this memory (Byte)
system.mem_ctrl.dram.numReads::cpu.inst          7771                       # Number of read requests responded to by this memory (Count)
system.mem_ctrl.dram.numReads::cpu.data          1110                       # Number of read requests responded to by this memory (Count)
system.mem_ctrl.dram.numReads::total             8881                       # Number of read requests responded to by this memory (Count)
system.mem_ctrl.dram.numWrites::cpu.data          949                       # Number of write requests responded to by this memory (Count)
system.mem_ctrl.dram.numWrites::total             949                       # Number of write requests responded to by this memory (Count)
system.mem_ctrl.dram.bwRead::cpu.inst       143195573                       # Total read bandwidth from this memory ((Byte/Second))
system.mem_ctrl.dram.bwRead::cpu.data        16777708                       # Total read bandwidth from this memory ((Byte/Second))
system.mem_ctrl.dram.bwRead::total          159973281                       # Total read bandwidth from this memory ((Byte/Second))
system.mem_ctrl.dram.bwInstRead::cpu.inst    143195573                       # Instruction read bandwidth from this memory ((Byte/Second))
system.mem_ctrl.dram.bwInstRead::total      143195573                       # Instruction read bandwidth from this memory ((Byte/Second))
system.mem_ctrl.dram.bwWrite::cpu.data       16639506                       # Write bandwidth from this memory ((Byte/Second))
system.mem_ctrl.dram.bwWrite::total          16639506                       # Write bandwidth from this memory ((Byte/Second))
system.mem_ctrl.dram.bwTotal::cpu.inst      143195573                       # Total bandwidth to/from this memory ((Byte/Second))
system.mem_ctrl.dram.bwTotal::cpu.data       33417214                       # Total bandwidth to/from this memory ((Byte/Second))
system.mem_ctrl.dram.bwTotal::total         176612787                       # Total bandwidth to/from this memory ((Byte/Second))
system.mem_ctrl.dram.readBursts                  8707                       # Number of DRAM read bursts (Count)
system.mem_ctrl.dram.writeBursts                   96                       # Number of DRAM write bursts (Count)
system.mem_ctrl.dram.perBankRdBursts::0           266                       # Per bank write bursts (Count)
system.mem_ctrl.dram.perBankRdBursts::1             4                       # Per bank write bursts (Count)
system.mem_ctrl.dram.perBankRdBursts::2           227                       # Per bank write bursts (Count)
system.mem_ctrl.dram.perBankRdBursts::3           102                       # Per bank write bursts (Count)
system.mem_ctrl.dram.perBankRdBursts::4          2041                       # Per bank write bursts (Count)
system.mem_ctrl.dram.perBankRdBursts::5          1029                       # Per bank write bursts (Count)
system.mem_ctrl.dram.perBankRdBursts::6          1103                       # Per bank write bursts (Count)
system.mem_ctrl.dram.perBankRdBursts::7           908                       # Per bank write bursts (Count)
system.mem_ctrl.dram.perBankRdBursts::8           701                       # Per bank write bursts (Count)
system.mem_ctrl.dram.perBankRdBursts::9           489                       # Per bank write bursts (Count)
system.mem_ctrl.dram.perBankRdBursts::10         1086                       # Per bank write bursts (Count)
system.mem_ctrl.dram.perBankRdBursts::11           59                       # Per bank write bursts (Count)
system.mem_ctrl.dram.perBankRdBursts::12           11                       # Per bank write bursts (Count)
system.mem_ctrl.dram.perBankRdBursts::13          489                       # Per bank write bursts (Count)
system.mem_ctrl.dram.perBankRdBursts::14           78                       # Per bank write bursts (Count)
system.mem_ctrl.dram.perBankRdBursts::15          114                       # Per bank write bursts (Count)
system.mem_ctrl.dram.perBankWrBursts::0            12                       # Per bank write bursts (Count)
system.mem_ctrl.dram.perBankWrBursts::1             0                       # Per bank write bursts (Count)
system.mem_ctrl.dram.perBankWrBursts::2             0                       # Per bank write bursts (Count)
system.mem_ctrl.dram.perBankWrBursts::3             0                       # Per bank write bursts (Count)
system.mem_ctrl.dram.perBankWrBursts::4             0                       # Per bank write bursts (Count)
system.mem_ctrl.dram.perBankWrBursts::5             0                       # Per bank write bursts (Count)
system.mem_ctrl.dram.perBankWrBursts::6             0                       # Per bank write bursts (Count)
system.mem_ctrl.dram.perBankWrBursts::7             0                       # Per bank write bursts (Count)
system.mem_ctrl.dram.perBankWrBursts::8             0                       # Per bank write bursts (Count)
system.mem_ctrl.dram.perBankWrBursts::9            52                       # Per bank write bursts (Count)
system.mem_ctrl.dram.perBankWrBursts::10           21                       # Per bank write bursts (Count)
system.mem_ctrl.dram.perBankWrBursts::11            7                       # Per bank write bursts (Count)
system.mem_ctrl.dram.perBankWrBursts::12            0                       # Per bank write bursts (Count)
system.mem_ctrl.dram.perBankWrBursts::13            0                       # Per bank write bursts (Count)
system.mem_ctrl.dram.perBankWrBursts::14            0                       # Per bank write bursts (Count)
system.mem_ctrl.dram.perBankWrBursts::15            4                       # Per bank write bursts (Count)
system.mem_ctrl.dram.totQLat                 28959500                       # Total ticks spent queuing (Tick)
system.mem_ctrl.dram.totBusLat               43535000                       # Total ticks spent in databus transfers (Tick)
system.mem_ctrl.dram.totMemAccLat           192215750                       # Total ticks spent from burst creation until serviced by the DRAM (Tick)
system.mem_ctrl.dram.avgQLat                  3326.00                       # Average queueing delay per DRAM burst ((Tick/Count))
system.mem_ctrl.dram.avgBusLat                5000.00                       # Average bus latency per DRAM burst ((Tick/Count))
system.mem_ctrl.dram.avgMemAccLat            22076.00                       # Average memory access latency per DRAM burst ((Tick/Count))
system.mem_ctrl.dram.readRowHits                 7851                       # Number of row buffer hits during reads (Count)
system.mem_ctrl.dram.writeRowHits                  84                       # Number of row buffer hits during writes (Count)
system.mem_ctrl.dram.readRowHitRate             90.17                       # Row buffer hit rate for reads (Ratio)
system.mem_ctrl.dram.writeRowHitRate            87.50                       # Row buffer hit rate for writes (Ratio)
system.mem_ctrl.dram.bytesPerActivate::samples          862                       # Bytes accessed per row activation (Byte)
system.mem_ctrl.dram.bytesPerActivate::mean   649.800464                       # Bytes accessed per row activation (Byte)
system.mem_ctrl.dram.bytesPerActivate::gmean   453.978499                       # Bytes accessed per row activation (Byte)
system.mem_ctrl.dram.bytesPerActivate::stdev   390.959993                       # Bytes accessed per row activation (Byte)
system.mem_ctrl.dram.bytesPerActivate::0-127          135     15.66%     15.66% # Bytes accessed per row activation (Byte)
system.mem_ctrl.dram.bytesPerActivate::128-255           64      7.42%     23.09% # Bytes accessed per row activation (Byte)
system.mem_ctrl.dram.bytesPerActivate::256-383           64      7.42%     30.51% # Bytes accessed per row activation (Byte)
system.mem_ctrl.dram.bytesPerActivate::384-511           62      7.19%     37.70% # Bytes accessed per row activation (Byte)
system.mem_ctrl.dram.bytesPerActivate::512-639           54      6.26%     43.97% # Bytes accessed per row activation (Byte)
system.mem_ctrl.dram.bytesPerActivate::640-767           48      5.57%     49.54% # Bytes accessed per row activation (Byte)
system.mem_ctrl.dram.bytesPerActivate::768-895           30      3.48%     53.02% # Bytes accessed per row activation (Byte)
system.mem_ctrl.dram.bytesPerActivate::896-1023           17      1.97%     54.99% # Bytes accessed per row activation (Byte)
system.mem_ctrl.dram.bytesPerActivate::1024-1151          388     45.01%    100.00% # Bytes accessed per row activation (Byte)
system.mem_ctrl.dram.bytesPerActivate::total          862                       # Bytes accessed per row activation (Byte)
system.mem_ctrl.dram.dramBytesRead             557248                       # Total bytes read (Byte)
system.mem_ctrl.dram.dramBytesWritten            6144                       # Total bytes written (Byte)
system.mem_ctrl.dram.avgRdBW              1283.545339                       # Average DRAM read bandwidth in MiBytes/s ((Byte/Second))
system.mem_ctrl.dram.avgWrBW                14.151872                       # Average DRAM write bandwidth in MiBytes/s ((Byte/Second))
system.mem_ctrl.dram.peakBW                  12800.00                       # Theoretical peak bandwidth in MiByte/s ((Byte/Second))
system.mem_ctrl.dram.busUtil                    10.14                       # Data bus utilization in percentage (Ratio)
system.mem_ctrl.dram.busUtilRead                10.03                       # Data bus utilization in percentage for reads (Ratio)
system.mem_ctrl.dram.busUtilWrite                0.11                       # Data bus utilization in percentage for writes (Ratio)
system.mem_ctrl.dram.pageHitRate                90.14                       # Row buffer hit rate, read and write combined (Ratio)
system.mem_ctrl.dram.power_state.pwrStateResidencyTicks::UNDEFINED    434147500                       # Cumulative time (in ticks) in various power states (Tick)
system.mem_ctrl.dram.rank0.actEnergy          3277260                       # Energy for activate commands per rank (pJ) (Joule)
system.mem_ctrl.dram.rank0.preEnergy          1726725                       # Energy for precharge commands per rank (pJ) (Joule)
system.mem_ctrl.dram.rank0.readEnergy        40555200                       # Energy for read commands per rank (pJ) (Joule)
system.mem_ctrl.dram.rank0.writeEnergy          62640                       # Energy for write commands per rank (pJ) (Joule)
system.mem_ctrl.dram.rank0.refreshEnergy 33805200.000000                       # Energy for refresh commands per rank (pJ) (Joule)
system.mem_ctrl.dram.rank0.actBackEnergy    162574260                       # Energy for active background per rank (pJ) (Joule)
system.mem_ctrl.dram.rank0.preBackEnergy     29808000                       # Energy for precharge background per rank (pJ) (Joule)
system.mem_ctrl.dram.rank0.actPowerDownEnergy            0                       # Energy for active power-down per rank (pJ) (Joule)
system.mem_ctrl.dram.rank0.prePowerDownEnergy            0                       # Energy for precharge power-down per rank (pJ) (Joule)
system.mem_ctrl.dram.rank0.selfRefreshEnergy            0                       # Energy for self refresh per rank (pJ) (Joule)
system.mem_ctrl.dram.rank0.totalEnergy      271809285                       # Total energy per rank (pJ) (Joule)
system.mem_ctrl.dram.rank0.averagePower    626.075896                       # Core power per rank (mW) (Watt)
system.mem_ctrl.dram.rank0.totalIdleTime            0                       # Total Idle time Per DRAM Rank (Tick)
system.mem_ctrl.dram.rank0.pwrStateTime::IDLE     74773250                       # Time in different power states (Tick)
system.mem_ctrl.dram.rank0.pwrStateTime::REF     14300000                       # Time in different power states (Tick)
system.mem_ctrl.dram.rank0.pwrStateTime::SREF            0                       # Time in different power states (Tick)
system.mem_ctrl.dram.rank0.pwrStateTime::PRE_PDN            0                       # Time in different power states (Tick)
system.mem_ctrl.dram.rank0.pwrStateTime::ACT    345074250                       # Time in different power states (Tick)
system.mem_ctrl.dram.rank0.pwrStateTime::ACT_PDN            0                       # Time in different power states (Tick)
system.mem_ctrl.dram.rank1.actEnergy          2920260                       # Energy for activate commands per rank (pJ) (Joule)
system.mem_ctrl.dram.rank1.preEnergy          1544565                       # Energy for precharge commands per rank (pJ) (Joule)
system.mem_ctrl.dram.rank1.readEnergy        21612780                       # Energy for read commands per rank (pJ) (Joule)
system.mem_ctrl.dram.rank1.writeEnergy         438480                       # Energy for write commands per rank (pJ) (Joule)
system.mem_ctrl.dram.rank1.refreshEnergy 33805200.000000                       # Energy for refresh commands per rank (pJ) (Joule)
system.mem_ctrl.dram.rank1.actBackEnergy    170036130                       # Energy for active background per rank (pJ) (Joule)
system.mem_ctrl.dram.rank1.preBackEnergy     23524320                       # Energy for precharge background per rank (pJ) (Joule)
system.mem_ctrl.dram.rank1.actPowerDownEnergy            0                       # Energy for active power-down per rank (pJ) (Joule)
system.mem_ctrl.dram.rank1.prePowerDownEnergy            0                       # Energy for precharge power-down per rank (pJ) (Joule)
system.mem_ctrl.dram.rank1.selfRefreshEnergy            0                       # Energy for self refresh per rank (pJ) (Joule)
system.mem_ctrl.dram.rank1.totalEnergy      253881735                       # Total energy per rank (pJ) (Joule)
system.mem_ctrl.dram.rank1.averagePower    584.782211                       # Core power per rank (mW) (Watt)
system.mem_ctrl.dram.rank1.totalIdleTime            0                       # Total Idle time Per DRAM Rank (Tick)
system.mem_ctrl.dram.rank1.pwrStateTime::IDLE     59142750                       # Time in different power states (Tick)
system.mem_ctrl.dram.rank1.pwrStateTime::REF     14300000                       # Time in different power states (Tick)
system.mem_ctrl.dram.rank1.pwrStateTime::SREF            0                       # Time in different power states (Tick)
system.mem_ctrl.dram.rank1.pwrStateTime::PRE_PDN            0                       # Time in different power states (Tick)
system.mem_ctrl.dram.rank1.pwrStateTime::ACT    360704750                       # Time in different power states (Tick)
system.mem_ctrl.dram.rank1.pwrStateTime::ACT_PDN            0                       # Time in different power states (Tick)
system.mem_ctrl.power_state.pwrStateResidencyTicks::UNDEFINED    434147500                       # Cumulative time (in ticks) in various power states (Tick)
system.mem_ctrl2.priorityMinLatency      0.000000000000                       # per QoS priority minimum request to response latency (Second)
system.mem_ctrl2.priorityMaxLatency      0.000000000000                       # per QoS priority maximum request to response latency (Second)
system.mem_ctrl2.numReadWriteTurnArounds            0                       # Number of turnarounds from READ to WRITE (Count)
system.mem_ctrl2.numWriteReadTurnArounds            0                       # Number of turnarounds from WRITE to READ (Count)
system.mem_ctrl2.numStayReadState                 110                       # Number of times bus staying in READ state (Count)
system.mem_ctrl2.numStayWriteState                  0                       # Number of times bus staying in WRITE state (Count)
system.mem_ctrl2.readReqs                           0                       # Number of read requests accepted (Count)
system.mem_ctrl2.writeReqs                          0                       # Number of write requests accepted (Count)
system.mem_ctrl2.readBursts                         0                       # Number of controller read bursts, including those serviced by the write queue (Count)
system.mem_ctrl2.writeBursts                        0                       # Number of controller write bursts, including those merged in the write queue (Count)
system.mem_ctrl2.servicedByWrQ                      0                       # Number of controller read bursts serviced by the write queue (Count)
system.mem_ctrl2.mergedWrBursts                     0                       # Number of controller write bursts merged with an existing one (Count)
system.mem_ctrl2.neitherReadNorWriteReqs            0                       # Number of requests that are neither read nor write (Count)
system.mem_ctrl2.avgRdQLen                       0.00                       # Average read queue length when enqueuing ((Count/Tick))
system.mem_ctrl2.avgWrQLen                       0.00                       # Average write queue length when enqueuing ((Count/Tick))
system.mem_ctrl2.numRdRetry                         0                       # Number of times read queue was full causing retry (Count)
system.mem_ctrl2.numWrRetry                         0                       # Number of times write queue was full causing retry (Count)
system.mem_ctrl2.readPktSize::0                     0                       # Read request sizes (log2) (Count)
system.mem_ctrl2.readPktSize::1                     0                       # Read request sizes (log2) (Count)
system.mem_ctrl2.readPktSize::2                     0                       # Read request sizes (log2) (Count)
system.mem_ctrl2.readPktSize::3                     0                       # Read request sizes (log2) (Count)
system.mem_ctrl2.readPktSize::4                     0                       # Read request sizes (log2) (Count)
system.mem_ctrl2.readPktSize::5                     0                       # Read request sizes (log2) (Count)
system.mem_ctrl2.readPktSize::6                     0                       # Read request sizes (log2) (Count)
system.mem_ctrl2.writePktSize::0                    0                       # Write request sizes (log2) (Count)
system.mem_ctrl2.writePktSize::1                    0                       # Write request sizes (log2) (Count)
system.mem_ctrl2.writePktSize::2                    0                       # Write request sizes (log2) (Count)
system.mem_ctrl2.writePktSize::3                    0                       # Write request sizes (log2) (Count)
system.mem_ctrl2.writePktSize::4                    0                       # Write request sizes (log2) (Count)
system.mem_ctrl2.writePktSize::5                    0                       # Write request sizes (log2) (Count)
system.mem_ctrl2.writePktSize::6                    0                       # Write request sizes (log2) (Count)
system.mem_ctrl2.rdQLenPdf::0                       0                       # What read queue length does an incoming req see (Count)
system.mem_ctrl2.rdQLenPdf::1                       0                       # What read queue length does an incoming req see (Count)
system.mem_ctrl2.rdQLenPdf::2                       0                       # What read queue length does an incoming req see (Count)
system.mem_ctrl2.rdQLenPdf::3                       0                       # What read queue length does an incoming req see (Count)
system.mem_ctrl2.rdQLenPdf::4                       0                       # What read queue length does an incoming req see (Count)
[...]
system.mem_ctrl2.wrQLenPdf::56                      0                       # What write queue length does an incoming req see (Count)
system.mem_ctrl2.wrQLenPdf::57                      0                       # What write queue length does an incoming req see (Count)
system.mem_ctrl2.wrQLenPdf::58                      0                       # What write queue length does an incoming req see (Count)
system.mem_ctrl2.wrQLenPdf::59                      0                       # What write queue length does an incoming req see (Count)
system.mem_ctrl2.wrQLenPdf::60                      0                       # What write queue length does an incoming req see (Count)
system.mem_ctrl2.wrQLenPdf::61                      0                       # What write queue length does an incoming req see (Count)
system.mem_ctrl2.wrQLenPdf::62                      0                       # What write queue length does an incoming req see (Count)
system.mem_ctrl2.wrQLenPdf::63                      0                       # What write queue length does an incoming req see (Count)
system.mem_ctrl2.bytesReadWrQ                       0                       # Total number of bytes read from write queue (Byte)
system.mem_ctrl2.bytesReadSys                       0                       # Total read bytes from the system interface side (Byte)
system.mem_ctrl2.bytesWrittenSys                    0                       # Total written bytes from the system interface side (Byte)
system.mem_ctrl2.avgRdBWSys                0.00000000                       # Average system read bandwidth in Byte/s ((Byte/Second))
system.mem_ctrl2.avgWrBWSys                0.00000000                       # Average system write bandwidth in Byte/s ((Byte/Second))
system.mem_ctrl2.totGap                             0                       # Total gap between requests (Tick)
system.mem_ctrl2.avgGap                           nan                       # Average gap between requests ((Tick/Count))
system.mem_ctrl2.dram.readBursts                    0                       # Number of DRAM read bursts (Count)
system.mem_ctrl2.dram.writeBursts                   0                       # Number of DRAM write bursts (Count)
system.mem_ctrl2.dram.perBankRdBursts::0            0                       # Per bank write bursts (Count)
system.mem_ctrl2.dram.perBankRdBursts::1            0                       # Per bank write bursts (Count)
system.mem_ctrl2.dram.perBankRdBursts::2            0                       # Per bank write bursts (Count)
system.mem_ctrl2.dram.perBankRdBursts::3            0                       # Per bank write bursts (Count)
system.mem_ctrl2.dram.perBankRdBursts::4            0                       # Per bank write bursts (Count)
system.mem_ctrl2.dram.perBankRdBursts::5            0                       # Per bank write bursts (Count)
system.mem_ctrl2.dram.perBankRdBursts::6            0                       # Per bank write bursts (Count)
system.mem_ctrl2.dram.perBankRdBursts::7            0                       # Per bank write bursts (Count)
system.mem_ctrl2.dram.perBankRdBursts::8            0                       # Per bank write bursts (Count)
system.mem_ctrl2.dram.perBankRdBursts::9            0                       # Per bank write bursts (Count)
system.mem_ctrl2.dram.perBankRdBursts::10            0                       # Per bank write bursts (Count)
system.mem_ctrl2.dram.perBankRdBursts::11            0                       # Per bank write bursts (Count)
system.mem_ctrl2.dram.perBankRdBursts::12            0                       # Per bank write bursts (Count)
system.mem_ctrl2.dram.perBankRdBursts::13            0                       # Per bank write bursts (Count)
system.mem_ctrl2.dram.perBankRdBursts::14            0                       # Per bank write bursts (Count)
system.mem_ctrl2.dram.perBankRdBursts::15            0                       # Per bank write bursts (Count)
system.mem_ctrl2.dram.perBankWrBursts::0            0                       # Per bank write bursts (Count)
system.mem_ctrl2.dram.perBankWrBursts::1            0                       # Per bank write bursts (Count)
system.mem_ctrl2.dram.perBankWrBursts::2            0                       # Per bank write bursts (Count)
system.mem_ctrl2.dram.perBankWrBursts::3            0                       # Per bank write bursts (Count)
system.mem_ctrl2.dram.perBankWrBursts::4            0                       # Per bank write bursts (Count)
system.mem_ctrl2.dram.perBankWrBursts::5            0                       # Per bank write bursts (Count)
system.mem_ctrl2.dram.perBankWrBursts::6            0                       # Per bank write bursts (Count)
system.mem_ctrl2.dram.perBankWrBursts::7            0                       # Per bank write bursts (Count)
system.mem_ctrl2.dram.perBankWrBursts::8            0                       # Per bank write bursts (Count)
system.mem_ctrl2.dram.perBankWrBursts::9            0                       # Per bank write bursts (Count)
system.mem_ctrl2.dram.perBankWrBursts::10            0                       # Per bank write bursts (Count)
system.mem_ctrl2.dram.perBankWrBursts::11            0                       # Per bank write bursts (Count)
system.mem_ctrl2.dram.perBankWrBursts::12            0                       # Per bank write bursts (Count)
system.mem_ctrl2.dram.perBankWrBursts::13            0                       # Per bank write bursts (Count)
system.mem_ctrl2.dram.perBankWrBursts::14            0                       # Per bank write bursts (Count)
system.mem_ctrl2.dram.perBankWrBursts::15            0                       # Per bank write bursts (Count)
system.mem_ctrl2.dram.totQLat                       0                       # Total ticks spent queuing (Tick)
system.mem_ctrl2.dram.totBusLat                     0                       # Total ticks spent in databus transfers (Tick)
system.mem_ctrl2.dram.totMemAccLat                  0                       # Total ticks spent from burst creation until serviced by the DRAM (Tick)
system.mem_ctrl2.dram.avgQLat                     nan                       # Average queueing delay per DRAM burst ((Tick/Count))
system.mem_ctrl2.dram.avgBusLat                   nan                       # Average bus latency per DRAM burst ((Tick/Count))
system.mem_ctrl2.dram.avgMemAccLat                nan                       # Average memory access latency per DRAM burst ((Tick/Count))
system.mem_ctrl2.dram.readRowHits                   0                       # Number of row buffer hits during reads (Count)
system.mem_ctrl2.dram.writeRowHits                  0                       # Number of row buffer hits during writes (Count)
system.mem_ctrl2.dram.readRowHitRate              nan                       # Row buffer hit rate for reads (Ratio)
system.mem_ctrl2.dram.writeRowHitRate             nan                       # Row buffer hit rate for writes (Ratio)
system.mem_ctrl2.dram.dramBytesRead                 0                       # Total bytes read (Byte)
system.mem_ctrl2.dram.dramBytesWritten              0                       # Total bytes written (Byte)
system.mem_ctrl2.dram.avgRdBW                       0                       # Average DRAM read bandwidth in MiBytes/s ((Byte/Second))
system.mem_ctrl2.dram.avgWrBW                       0                       # Average DRAM write bandwidth in MiBytes/s ((Byte/Second))
system.mem_ctrl2.dram.peakBW                 12800.00                       # Theoretical peak bandwidth in MiByte/s ((Byte/Second))
system.mem_ctrl2.dram.busUtil                    0.00                       # Data bus utilization in percentage (Ratio)
system.mem_ctrl2.dram.busUtilRead                0.00                       # Data bus utilization in percentage for reads (Ratio)
system.mem_ctrl2.dram.busUtilWrite               0.00                       # Data bus utilization in percentage for writes (Ratio)
system.mem_ctrl2.dram.pageHitRate                 nan                       # Row buffer hit rate, read and write combined (Ratio)
system.mem_ctrl2.dram.power_state.pwrStateResidencyTicks::UNDEFINED    434147500                       # Cumulative time (in ticks) in various power states (Tick)
system.mem_ctrl2.dram.rank0.actEnergy               0                       # Energy for activate commands per rank (pJ) (Joule)
system.mem_ctrl2.dram.rank0.preEnergy               0                       # Energy for precharge commands per rank (pJ) (Joule)
system.mem_ctrl2.dram.rank0.readEnergy              0                       # Energy for read commands per rank (pJ) (Joule)
system.mem_ctrl2.dram.rank0.writeEnergy             0                       # Energy for write commands per rank (pJ) (Joule)
system.mem_ctrl2.dram.rank0.refreshEnergy 33805200.000000                       # Energy for refresh commands per rank (pJ) (Joule)
system.mem_ctrl2.dram.rank0.actBackEnergy      6175950                       # Energy for active background per rank (pJ) (Joule)
system.mem_ctrl2.dram.rank0.preBackEnergy    161511840                       # Energy for precharge background per rank (pJ) (Joule)
system.mem_ctrl2.dram.rank0.actPowerDownEnergy            0                       # Energy for active power-down per rank (pJ) (Joule)
system.mem_ctrl2.dram.rank0.prePowerDownEnergy            0                       # Energy for precharge power-down per rank (pJ) (Joule)
system.mem_ctrl2.dram.rank0.selfRefreshEnergy            0                       # Energy for self refresh per rank (pJ) (Joule)
system.mem_ctrl2.dram.rank0.totalEnergy     201492990                       # Total energy per rank (pJ) (Joule)
system.mem_ctrl2.dram.rank0.averagePower   464.111828                       # Core power per rank (mW) (Watt)
system.mem_ctrl2.dram.rank0.totalIdleTime            0                       # Total Idle time Per DRAM Rank (Tick)
system.mem_ctrl2.dram.rank0.pwrStateTime::IDLE    419847500                       # Time in different power states (Tick)
system.mem_ctrl2.dram.rank0.pwrStateTime::REF     14300000                       # Time in different power states (Tick)
system.mem_ctrl2.dram.rank0.pwrStateTime::SREF            0                       # Time in different power states (Tick)
system.mem_ctrl2.dram.rank0.pwrStateTime::PRE_PDN            0                       # Time in different power states (Tick)
system.mem_ctrl2.dram.rank0.pwrStateTime::ACT            0                       # Time in different power states (Tick)
system.mem_ctrl2.dram.rank0.pwrStateTime::ACT_PDN            0                       # Time in different power states (Tick)
system.mem_ctrl2.dram.rank1.actEnergy               0                       # Energy for activate commands per rank (pJ) (Joule)
system.mem_ctrl2.dram.rank1.preEnergy               0                       # Energy for precharge commands per rank (pJ) (Joule)
system.mem_ctrl2.dram.rank1.readEnergy              0                       # Energy for read commands per rank (pJ) (Joule)
system.mem_ctrl2.dram.rank1.writeEnergy             0                       # Energy for write commands per rank (pJ) (Joule)
system.mem_ctrl2.dram.rank1.refreshEnergy 33805200.000000                       # Energy for refresh commands per rank (pJ) (Joule)
system.mem_ctrl2.dram.rank1.actBackEnergy      6175950                       # Energy for active background per rank (pJ) (Joule)
system.mem_ctrl2.dram.rank1.preBackEnergy    161511840                       # Energy for precharge background per rank (pJ) (Joule)
system.mem_ctrl2.dram.rank1.actPowerDownEnergy            0                       # Energy for active power-down per rank (pJ) (Joule)
system.mem_ctrl2.dram.rank1.prePowerDownEnergy            0                       # Energy for precharge power-down per rank (pJ) (Joule)
system.mem_ctrl2.dram.rank1.selfRefreshEnergy            0                       # Energy for self refresh per rank (pJ) (Joule)
system.mem_ctrl2.dram.rank1.totalEnergy     201492990                       # Total energy per rank (pJ) (Joule)
system.mem_ctrl2.dram.rank1.averagePower   464.111828                       # Core power per rank (mW) (Watt)
system.mem_ctrl2.dram.rank1.totalIdleTime            0                       # Total Idle time Per DRAM Rank (Tick)
system.mem_ctrl2.dram.rank1.pwrStateTime::IDLE    419847500                       # Time in different power states (Tick)
system.mem_ctrl2.dram.rank1.pwrStateTime::REF     14300000                       # Time in different power states (Tick)
system.mem_ctrl2.dram.rank1.pwrStateTime::SREF            0                       # Time in different power states (Tick)
system.mem_ctrl2.dram.rank1.pwrStateTime::PRE_PDN            0                       # Time in different power states (Tick)
system.mem_ctrl2.dram.rank1.pwrStateTime::ACT            0                       # Time in different power states (Tick)
system.mem_ctrl2.dram.rank1.pwrStateTime::ACT_PDN            0                       # Time in different power states (Tick)
system.mem_ctrl2.power_state.pwrStateResidencyTicks::UNDEFINED    434147500                       # Cumulative time (in ticks) in various power states (Tick)
system.membus.transDist::ReadReq                 8881                       # Transaction distribution (Count)
system.membus.transDist::ReadResp                8881                       # Transaction distribution (Count)
system.membus.transDist::WriteReq                 949                       # Transaction distribution (Count)
system.membus.transDist::WriteResp                949                       # Transaction distribution (Count)
system.membus.pktCount_system.memobj.mem_side::system.cxlswitch.cpu_side_port        19660                       # Packet count per connected requestor and responder (Count)
system.membus.pktCount_system.memobj.mem_side::total        19660                       # Packet count per connected requestor and responder (Count)
system.membus.pktCount::total                   19660                       # Packet count per connected requestor and responder (Count)
system.membus.pktSize_system.memobj.mem_side::system.cxlswitch.cpu_side_port        76676                       # Cumulative packet size per connected requestor and responder (Byte)
system.membus.pktSize_system.memobj.mem_side::total        76676                       # Cumulative packet size per connected requestor and responder (Byte)
system.membus.pktSize::total                    76676                       # Cumulative packet size per connected requestor and responder (Byte)
system.membus.snoops                                0                       # Total snoops (Count)
system.membus.snoopTraffic                          0                       # Total snoop traffic (Byte)
system.membus.snoopFanout::samples               9830                       # Request fanout histogram (Count)
system.membus.snoopFanout::mean                     0                       # Request fanout histogram (Count)
system.membus.snoopFanout::stdev                    0                       # Request fanout histogram (Count)
system.membus.snoopFanout::underflows               0      0.00%      0.00% # Request fanout histogram (Count)
system.membus.snoopFanout::0                     9830    100.00%    100.00% # Request fanout histogram (Count)
system.membus.snoopFanout::overflows                0      0.00%    100.00% # Request fanout histogram (Count)
system.membus.snoopFanout::min_value                0                       # Request fanout histogram (Count)
system.membus.snoopFanout::max_value                0                       # Request fanout histogram (Count)
system.membus.snoopFanout::total                 9830                       # Request fanout histogram (Count)
system.membus.power_state.pwrStateResidencyTicks::UNDEFINED    434147500                       # Cumulative time (in ticks) in various power states (Tick)
system.membus.reqLayer2.occupancy             5389500                       # Layer occupancy (ticks) (Tick)
system.membus.reqLayer2.utilization               0.0                       # Layer utilization (Ratio)
system.membus.respLayer0.occupancy           11377750                       # Layer occupancy (ticks) (Tick)
system.membus.respLayer0.utilization              0.0                       # Layer utilization (Ratio)
system.membus.snoop_filter.totRequests              0                       # Total number of requests made to the snoop filter. (Count)
system.membus.snoop_filter.hitSingleRequests            0                       # Number of requests hitting in the snoop filter with a single holder of the requested data. (Count)
system.membus.snoop_filter.hitMultiRequests            0                       # Number of requests hitting in the snoop filter with multiple (>1) holders of the requested data. (Count)
system.membus.snoop_filter.totSnoops                0                       # Total number of snoops made to the snoop filter. (Count)
system.membus.snoop_filter.hitSingleSnoops            0                       # Number of snoops hitting in the snoop filter with a single holder of the requested data. (Count)
system.membus.snoop_filter.hitMultiSnoops            0                       # Number of snoops hitting in the snoop filter with multiple (>1) holders of the requested data. (Count)
system.membus2.snoops                               0                       # Total snoops (Count)
system.membus2.snoopTraffic                         0                       # Total snoop traffic (Byte)
system.membus2.snoopFanout::samples                 0                       # Request fanout histogram (Count)
system.membus2.snoopFanout::mean                  nan                       # Request fanout histogram (Count)
system.membus2.snoopFanout::stdev                 nan                       # Request fanout histogram (Count)
system.membus2.snoopFanout::underflows              0                       # Request fanout histogram (Count)
system.membus2.snoopFanout::0                       0                       # Request fanout histogram (Count)
system.membus2.snoopFanout::overflows               0                       # Request fanout histogram (Count)
system.membus2.snoopFanout::min_value               0                       # Request fanout histogram (Count)
system.membus2.snoopFanout::max_value               0                       # Request fanout histogram (Count)
system.membus2.snoopFanout::total                   0                       # Request fanout histogram (Count)
system.membus2.power_state.pwrStateResidencyTicks::UNDEFINED    434147500                       # Cumulative time (in ticks) in various power states (Tick)
system.membus2.snoop_filter.totRequests             0                       # Total number of requests made to the snoop filter. (Count)
system.membus2.snoop_filter.hitSingleRequests            0                       # Number of requests hitting in the snoop filter with a single holder of the requested data. (Count)
system.membus2.snoop_filter.hitMultiRequests            0                       # Number of requests hitting in the snoop filter with multiple (>1) holders of the requested data. (Count)
system.membus2.snoop_filter.totSnoops               0                       # Total number of snoops made to the snoop filter. (Count)
system.membus2.snoop_filter.hitSingleSnoops            0                       # Number of snoops hitting in the snoop filter with a single holder of the requested data. (Count)
system.membus2.snoop_filter.hitMultiSnoops            0                       # Number of snoops hitting in the snoop filter with multiple (>1) holders of the requested data. (Count)
system.workload.inst.arm                            0                       # number of arm instructions executed (Count)
system.workload.inst.quiesce                        0                       # number of quiesce instructions executed (Count)

---------- End Simulation Statistics   ----------
